Version 4
SHEET 1 3864 3200
WIRE -992 1856 -1024 1856
WIRE -832 1856 -848 1856
WIRE 752 1920 720 1920
WIRE 912 1920 896 1920
WIRE -1024 1984 -1024 1856
WIRE -992 1984 -1024 1984
WIRE -832 1984 -832 1856
WIRE -832 1984 -912 1984
WIRE 720 2048 720 1920
WIRE 752 2048 720 2048
WIRE 912 2048 912 1920
WIRE 912 2048 832 2048
WIRE -1120 2080 -1456 2080
WIRE -1024 2080 -1024 1984
WIRE -1024 2080 -1040 2080
WIRE -1008 2080 -1024 2080
WIRE -832 2096 -832 1984
WIRE -832 2096 -944 2096
WIRE -592 2096 -832 2096
WIRE -1008 2112 -1040 2112
WIRE -480 2112 -528 2112
WIRE -144 2112 -480 2112
WIRE 48 2112 -32 2112
WIRE -592 2128 -624 2128
WIRE -144 2144 -176 2144
WIRE 64 2144 -32 2144
WIRE 624 2144 288 2144
WIRE 720 2144 720 2048
WIRE 720 2144 704 2144
WIRE 736 2144 720 2144
WIRE 912 2160 912 2048
WIRE 912 2160 800 2160
WIRE 1152 2160 912 2160
WIRE 736 2176 704 2176
WIRE 1264 2176 1216 2176
WIRE 1600 2176 1264 2176
WIRE 1792 2176 1712 2176
WIRE 1152 2192 1120 2192
WIRE 1600 2208 1568 2208
WIRE 1808 2208 1712 2208
WIRE 64 2224 64 2144
WIRE -624 2272 -624 2128
WIRE -480 2272 -480 2192
WIRE -480 2272 -624 2272
WIRE -384 2272 -480 2272
WIRE -176 2272 -176 2144
WIRE -176 2272 -304 2272
WIRE 1808 2288 1808 2208
WIRE -480 2304 -480 2272
WIRE -176 2304 -176 2272
WIRE 1120 2336 1120 2192
WIRE 1264 2336 1264 2256
WIRE 1264 2336 1120 2336
WIRE 1360 2336 1264 2336
WIRE 1568 2336 1568 2208
WIRE 1568 2336 1440 2336
WIRE 1264 2368 1264 2336
WIRE 1568 2368 1568 2336
WIRE -1456 2544 -1456 2080
WIRE -1216 2544 -1456 2544
WIRE -928 2560 -1168 2560
WIRE -704 2560 -928 2560
WIRE -560 2576 -656 2576
WIRE -416 2576 -560 2576
WIRE -192 2576 -416 2576
WIRE 64 2576 64 2304
WIRE 64 2576 -96 2576
WIRE -192 2608 -288 2608
WIRE 64 2608 -96 2608
WIRE 288 2608 288 2144
WIRE 512 2608 288 2608
WIRE 816 2624 560 2624
WIRE 1040 2624 816 2624
WIRE -656 2640 -656 2624
WIRE -656 2640 -704 2640
WIRE 1184 2640 1088 2640
WIRE 1328 2640 1184 2640
WIRE 1552 2640 1328 2640
WIRE 1808 2640 1808 2368
WIRE 1808 2640 1648 2640
WIRE -704 2656 -704 2640
WIRE -288 2656 -288 2608
WIRE 64 2656 64 2608
WIRE 1552 2672 1456 2672
WIRE 1808 2672 1648 2672
WIRE 1088 2704 1088 2688
WIRE 1088 2704 1040 2704
WIRE 1040 2720 1040 2704
WIRE 1456 2720 1456 2672
WIRE 1808 2720 1808 2672
FLAG 704 2176 0
FLAG 1568 2448 0
FLAG 1264 2448 0
FLAG 1792 2176 0
FLAG 1328 2720 0
FLAG 1456 2720 0
FLAG 1808 2720 0
FLAG 1040 2720 0
FLAG 816 2624 mic-out-2
FLAG -1040 2112 0
FLAG -176 2384 0
FLAG -480 2384 0
FLAG 48 2112 0
FLAG -416 2656 0
FLAG -288 2656 0
FLAG 64 2656 0
FLAG -704 2656 0
FLAG -928 2560 mic-out-1
FLAG 512 2688 0
FLAG 560 2672 0
FLAG -1216 2624 0
FLAG -1168 2608 0
FLAG -560 2576 out-1
FLAG 1184 2640 out-2
FLAG -80 2224 cone-velocity-1
FLAG 1664 2288 cone-velocity-2
SYMBOL Opamps\\opamp 768 2096 R0
SYMATTR InstName U5
SYMBOL res 848 2032 R90
WINDOW 0 0 56 VBottom 2
WINDOW 3 32 56 VTop 2
SYMATTR InstName R14
SYMATTR Value 22k
SYMBOL res 720 2128 R90
WINDOW 0 0 56 VBottom 2
WINDOW 3 32 56 VTop 2
SYMATTR InstName R15
SYMATTR Value 22k
SYMBOL res 848 1904 R90
WINDOW 0 0 56 VBottom 2
WINDOW 3 32 56 VTop 2
SYMATTR InstName R16
SYMATTR Value 2k
SYMBOL cap 832 1936 R270
WINDOW 0 32 32 VTop 2
WINDOW 3 0 32 VBottom 2
SYMATTR InstName C5
SYMATTR Value 100n
SYMBOL speaker-closed-box 1680 2192 R0
SYMATTR InstName X2
SYMBOL Opamps\\opamp 1184 2240 M180
SYMATTR InstName U6
SYMBOL res 1552 2352 R0
SYMATTR InstName R17
SYMATTR Value 0.47
SYMBOL res 1248 2160 R0
SYMATTR InstName R18
SYMATTR Value 22k
SYMBOL res 1248 2352 R0
SYMATTR InstName R19
SYMATTR Value 1k
SYMBOL res 1456 2320 R90
WINDOW 0 0 56 VBottom 2
WINDOW 3 32 56 VTop 2
SYMATTR InstName R20
SYMATTR Value 100
SYMBOL voltage 1808 2272 R0
WINDOW 123 24 124 Left 2
WINDOW 39 0 0 Left 0
SYMATTR Value2 AC 1
SYMATTR InstName V1
SYMATTR Value PULSE(0 1 10m 1u 1u 10m 20m 3)
SYMBOL tline 1600 2656 R0
SYMATTR InstName T1
SYMATTR Value Td=0.15m Z0=100k
SYMBOL res 1312 2624 R0
SYMATTR InstName R21
SYMATTR Value 100k
SYMBOL e 1040 2608 M0
SYMATTR InstName E1
SYMATTR Value 0.05
SYMBOL Opamps\\opamp -976 2032 R0
SYMATTR InstName U1
SYMBOL res -896 1968 R90
WINDOW 0 0 56 VBottom 2
WINDOW 3 32 56 VTop 2
SYMATTR InstName R1
SYMATTR Value 22k
SYMBOL res -1024 2064 R90
WINDOW 0 0 56 VBottom 2
WINDOW 3 32 56 VTop 2
SYMATTR InstName R2
SYMATTR Value 22k
SYMBOL res -896 1840 R90
WINDOW 0 0 56 VBottom 2
WINDOW 3 32 56 VTop 2
SYMATTR InstName R3
SYMATTR Value 2k
SYMBOL cap -912 1872 R270
WINDOW 0 32 32 VTop 2
WINDOW 3 0 32 VBottom 2
SYMATTR InstName C1
SYMATTR Value 100n
SYMBOL speaker-closed-box -64 2128 R0
SYMATTR InstName X1
SYMBOL Opamps\\opamp -560 2176 M180
SYMATTR InstName U2
SYMBOL res -192 2288 R0
SYMATTR InstName R4
SYMATTR Value 0.47
SYMBOL res -496 2096 R0
SYMATTR InstName R5
SYMATTR Value 22k
SYMBOL res -496 2288 R0
SYMATTR InstName R6
SYMATTR Value 1k
SYMBOL res -288 2256 R90
WINDOW 0 0 56 VBottom 2
WINDOW 3 32 56 VTop 2
SYMATTR InstName R7
SYMATTR Value 100k
SYMBOL voltage 64 2208 R0
WINDOW 123 24 124 Left 2
WINDOW 39 0 0 Left 0
SYMATTR Value2 AC 1
SYMATTR InstName V2
SYMATTR Value PULSE(0 1 10m 1u 1u 10m 20m 3)
SYMBOL tline -144 2592 R0
SYMATTR InstName T2
SYMATTR Value Td=0.15m Z0=100k
SYMBOL res -432 2560 R0
SYMATTR InstName R8
SYMATTR Value 100k
SYMBOL e -704 2544 M0
SYMATTR InstName E2
SYMATTR Value 0.05
SYMBOL e -1216 2528 M0
SYMATTR InstName E3
SYMATTR Value 0.35
SYMBOL e 512 2592 M0
SYMATTR InstName E4
SYMATTR Value 1
TEXT 1056 2952 Left 2 !.lib opamp.sub
TEXT 1064 3008 Left 2 !;.tran 0 100m 0 1u
TEXT 1072 3064 Left 2 !.ac oct 100 1 10k
TEXT 1056 2896 Left 2 !.step param Rfbi list 50 500 5000
TEXT 1152 2024 Left 2 ;High output impedance amp
TEXT -560 1984 Left 2 ;low output impedance amp
TEXT -176 2720 Left 2 ;delay
